src/tests/data/grids/CGMES_2_4_15/TestConfigurations_packageCASv2.0/MicroGrid/BaseCase_BC/BE_psse33_cimconverter.raw
0,     100.00 , 33, 0  , 1 , 50.00  / E-v33, exported on Friday, 7/5/2024  14:14


120000, 'BE_TR_BUS2  ',  380.000, 1,    12,   2,  1,  1.08681, -6.78071, 1.10000, 0.90000, 1.10000, 0.90000
120001, 'BE_TR_BUS4  ',  225.000, 1,    12,   2,  1,  0.99696, -8.77012, 1.10000, 0.90000, 1.10000, 0.90000
120002, 'BE-Busbar_6 ',  110.000, 1,    12,   2,  1,  1.05000, -9.39133, 1.10000, 0.90000, 1.10000, 0.90000
120003, 'BE-Busbar_5 ',  21.000, 3,    12,   2,  1,  1.04700, -6.65080, 1.10000, 0.90000, 1.10000, 0.90000
120004, 'BE-Busbar_4 ',  10.500, 2,    12,   2,  1,  1.03055, -7.05718, 1.10000, 0.90000, 1.10000, 0.90000
120005, 'BE-Busbar_2 ',  225.000, 1,    12,   1,  1,  0.99943, -7.62490, 1.10000, 0.90000, 1.10000, 0.90000
  1000, 'TN_Border_GY11',  400.000, 1,    99,   999,  1,  1.02720, -6.57644, 1.10000, 0.90000, 1.10000, 0.90000
 11999, 'TN_Border_AL11',  400.000, 1,    99,   999,  1,  1.02788, -6.58811, 1.10000, 0.90000, 1.10000, 0.90000
  1001, 'TN_Border_MA11',  400.000, 1,    99,   999,  1,  1.03153, -6.74695, 1.10000, 0.90000, 1.10000, 0.90000
  1002, 'TN_Border_ST23',  220.000, 1,    99,   999,  1,  1.02499, -5.58021, 1.10000, 0.90000, 1.10000, 0.90000
  1003, 'TN_Border_ST24',  220.000, 1,    99,   999,  1,  1.02257, -5.63853, 1.10000, 0.90000, 1.10000, 0.90000
0 / END OF BUS DATA, BEGIN LOAD DATA
   11999, '1 ', 1,   99,   1,    -46.817,     79.194,     0.000,     0.000,     0.000,     0.000,  1,   1, 0
   1001, '1 ', 1,   99,   1,    -43.687,     84.877,     0.000,     0.000,     0.000,     0.000,  1,   1, 0
   1000, '1 ', 1,   99,   1,    -90.037,     148.604,     0.000,     0.000,     0.000,     0.000,  1,   1, 0
   1002, '1 ', 1,   99,   1,    -27.365,     0.426,     0.000,     0.000,     0.000,     0.000,  1,   1, 0
   1003, '1 ', 1,   99,   1,    -26.805,     1.490,     0.000,     0.000,     0.000,     0.000,  1,   1, 0
   120002, '1 ', 1,   12,   1,    200.000,     90.000,     0.000,     0.000,     0.000,     0.000,  1,   1, 0
   120001, '1 ', 1,   12,   1,    200.000,     50.000,     0.000,     0.000,     0.000,     0.000,  1,   1, 0
   120005, '1 ', 1,   12,   1,    1.000,     0.000,     0.000,     0.000,     0.000,     0.000,  1,   1, 0
0 / END OF LOAD DATA, BEGIN FIXED SHUNT DATA
0 / END OF FIXED SHUNT DATA, BEGIN GENERATOR DATA
120004, '1 ',   90.000,   100.256,   300.000,  -300.000,  1.05000,       120002,   300.000,   0.00000,   1.00000, 0.00000,   0.00000,  1.00000,     1, 100.00,     200.000,     50.000,     1, 1.0000, 0, 1.0000, 0, 1.0000, 0, 1.0000,   0,   0.85
120003, '1 ',   118.000,   18.720,   200.000,  -200.000,  1.04700,       0,   300.000,   0.00000,   1.00000, 0.00000,   0.00000,  1.00000,     1, 100.00,     200.000,     50.000,     1, 1.0000, 0, 1.0000, 0, 1.0000, 0, 1.0000,   0,   0.85
0 / END OF GENERATOR DATA, BEGIN BRANCH DATA
  1002,  120005, '1 ',  0.00454546,  0.14090910,  0.04014199,   494.871,   549.857,   571.577,   0.0000000,   0.0000000,   0.0000000,   0.0000000,  1,  1, 22.000,  1, 1.0000, 0, 1.0000, 0, 1.0000, 0, 1.0000
120001,  120005, '1 ',  0.00382222,  0.06755555,  0.02147082,   506.118,   562.354,   613.406,   0.0000000,   0.0000000,   0.0000000,   0.0000000,  1,  1, 45.000,  1, 1.0000, 0, 1.0000, 0, 1.0000, 0, 1.0000
120000,   11999, '1 ',  0.00072715,  0.00831025,  0.21638920,   812.128,   902.364,   949.753,   0.0000000,   0.0000000,   0.0000000,   0.0000000,  1,  1, 30.000,  1, 1.0000, 0, 1.0000, 0, 1.0000, 0, 1.0000
120000,    1001, '1 ',  0.00016621,  0.00138504,  0.03638245,   726.235,   806.928,   854.975,   0.0000000,   0.0000000,   0.0000000,   0.0000000,  1,  1, 40.000,  1, 1.0000, 0, 1.0000, 0, 1.0000, 0, 1.0000
120000,    1000, '1 ',  0.00029086,  0.00436288,  0.09526559,  1068.620,  1187.355,  1234.744,   0.0000000,   0.0000000,   0.0000000,   0.0000000,  1,  1, 35.000,  1, 1.0000, 0, 1.0000, 0, 1.0000, 0, 1.0000
120001,  120005, '2 ',  0.01027753,  0.14024690,  0.01013102,   413.874,   459.860,   511.301,   0.0000000,   0.0000000,   0.0000000,   0.0000000,  1,  1, 100.000,  1, 1.0000, 0, 1.0000, 0, 1.0000, 0, 1.0000
  1003,  120005, '1 ',  0.00950413,  0.14256200,  0.01049167,   404.676,   449.640,   499.939,   0.0000000,   0.0000000,   0.0000000,   0.0000000,  1,  1, 23.000,  1, 1.0000, 0, 1.0000, 0, 1.0000, 0, 1.0000
0 / END OF BRANCH DATA, BEGIN TRANSFORMER DATA
120000, 120002,       0, '1 ', 1, 1, 1,   0.0000000,   0.0000000, 2, 'T1 that is a', 1,1, 1.0000, 0, 1.0000, 0, 1.0000, 0, 1.0000,'            '
    0.0016923,    0.0090743,     650.00
    1.053371,  400.00,   -2.14868,   585.0037,   650.0040,   663.8604, 5,      0,    8.5307660,   -8.5307660,    650.00000,   -650.00000,  25,    0,     0.0000000,    0.0000000,    90.0000000
    1.000000,  110.00
120001, 120002,       0, '1 ', 1, 1, 1,   0.0000000,   0.0000000, 2, 'This is T2 i', 1,1, 1.0000, 0, 1.0000, 0, 1.0000, 0, 1.0000,'            '
    0.0017000,    0.0230142,     650.00
    0.940278,  220.00,    0.00000,   584.9974,   649.9971,   688.1023,-1, 120002,    1.1277780,    0.8277777,      1.10000,      0.90000,  25,    0,     0.0000000,    0.0000000,     0.0000000
    1.000000,  110.00
120004, 120002,       0, '1 ', 1, 1, 1,   0.0021100,  -0.0101100, 2, 'This is free', 1,1, 1.0000, 0, 1.0000, 0, 1.0000, 0, 1.0000,'            '
    0.0008600,    0.0479923,     250.00
    0.976000,   10.50,    0.00000,   224.9994,   249.9994,   268.1859, 1, 120004,    1.1280000,    0.8720000,      1.10000,      0.90000,  33,    0,     0.0000000,    0.0000000,     0.0000000
    1.003125,  110.34
120000, 120001,  120003, '1 ', 1, 1, 1,   0.0000000,  -0.0035198, 3, 'new in 2015 ', 1,1, 1.0000, 0, 1.0000, 0, 1.0000, 0, 1.0000,'            '
     0.001231,    0.0230441,     650.00,     0.0036924,    0.0258920,     650.00,     0.0035847,    0.0243530,     650.00,       1.00000,     0.0000
   1.0526320,  400.00,    0.00000,   585.0037,   650.0040,   670.7886, 0,      0,    1.1000000,    0.9000000,      1.10000,      0.90000,  33,    0,     0.0000000,    0.0000000,     0.0000000
   0.9777778,  220.00,    0.00000,   584.9974,   649.9971,   688.1023,-1,      0,    1.0777780,    0.8777778,      1.10000,      0.90000,  33,    0,     0.0000000,    0.0000000,     0.0000000
   1.0000000,   21.00,    0.00000,   585.0012,   650.0013,   686.3743, 0,      0,    1.1000000,    0.9000000,      1.10000,      0.90000,  33,    0,     0.0000000,    0.0000000,     0.0000000
0 / END OF TRANSFORMER DATA, BEGIN AREA DATA
  12,      0,      0.000,      10.00, 'BE          '
  99,      0,      0.000,      10.00, 'XX          '
0 / END OF AREA DATA, BEGIN TWO-TERMINAL DC DATA
0 / END OF TWO-TERMINAL DC DATA, BEGIN VSC DC LINE DATA
0 / END OF VSC DC LINE DATA, BEGIN IMPEDANCE CORRECTION DATA
0 / END OF IMPEDANCE CORRECTION DATA, BEGIN MULTI-TERMINAL DC DATA
0 / END OF MULTI-TERMINAL DC DATA, BEGIN MULTI-SECTION LINE DATA
0 / END OF MULTI-SECTION LINE DATA, BEGIN ZONE DATA
 999, 'ENTSO-E     '
   1, 'ELIA-Anvers '
   2, 'ELIA-Brussels'
0 / END OF ZONE DATA, BEGIN INTER-AREA TRANSFER DATA
0 / END OF INTER-AREA TRANSFER DATA, BEGIN OWNER DATA
   1,'OWNER1      '
0 / END OF OWNER DATA, BEGIN FACTS DEVICE DATA
0 / END OF FACTS DEVICE DATA, BEGIN SWITCHED SHUNT DATA
120002,1,0,1, 1.00455,0.99545, 0, 100.0, '            ', 299.99530, 1,299.9953
120000,1,0,1, 1.00132,0.99868, 0, 100.0, '            ', 49.96240, 1,49.9624
0 / END OF SWITCHED SHUNT DATA, BEGIN GNE DATA
0 / END OF GNE DATA, BEGIN INDUCTION MACHINE DATA
0 / END OF INDUCTION MACHINE DATA
Q
